%chk=caffeine
%mem=500MB
#p b3lyp/cc-pVDZ opt

No comment specified. Default Comment: From NewCaffeine.xyz 

0 1 
 N     3.831536     0.000000     0.062646 
 C     2.359623     0.000000     0.016662 
 C     2.346242     0.000000     1.466600 
 N     3.391185     0.000000     1.965657 
 C     4.217536     0.000000     1.154419 
 N     1.092573     0.000000     2.175061 
 C     0.000000     0.000000     1.440000 
 N     0.000000     0.000000     0.000000 
 C     1.179579     0.000000    -0.825950 
 C    -1.305083     0.000000    -0.608570 
 O    -1.345306     0.000000     1.827493 
 O     1.192499     0.000000    -2.225890 
 C     1.079284     0.000000     3.614999 
 C     4.767291     0.000000    -1.031868 
 H    -2.067983     0.000000     0.168543 
 H    -1.417118     0.889165    -1.227242 
 H    -1.417118    -0.889165    -1.227242 
 H     0.049258     0.000000     3.968508 
 H     1.589271    -0.889165     3.982721 
 H     1.589271     0.889165     3.982721 
 H     4.222791     0.000000    -1.974970 
 H     5.393373     0.889165    -0.974180 
 H     5.393373    -0.889165    -0.974180 
 H     5.288201     0.000000     1.353412 
 
